MODEL_NAME,NAME,RESOLUTION,NSE,MSE,MAE,PBIAS,KGE
MODFLOW_250m,4096405,250,0.9530253994868446,28.378132306209327,4.304284665184876,-1.2663679511174049,0.9828372058659876
MODFLOW_ML_250m,4096405,250,0.9525113940573604,28.49746247037493,4.326610147500698,-1.267341983769128,0.983069716827931
MODFLOW_250m,4096515,250,0.8232771219407584,28.3751913539667,4.007537962535505,-0.7486594766013522,0.9252481963696892
MODFLOW_ML_250m,4096515,250,0.8199766349791601,28.746395335172053,4.0348724476207325,-0.752528250836811,0.9237456758668566
MODFLOW_250m,4097540,250,0.7298284576861525,50.11476100072999,4.956719964253146,-1.6895335814594576,0.9164175234302222
MODFLOW_ML_250m,4097540,250,0.7109898596121579,52.04424590502293,5.033917034660215,-1.7001274570120606,0.9101478550071108
MODFLOW_250m,4102500,250,0.8604579215898528,80.92155450998344,6.814424978971206,-2.8501742152681317,0.932937614057955
MODFLOW_ML_250m,4102500,250,0.8601649765017573,80.93575178752148,6.783137680222081,-2.833023328182191,0.932728309500054
MODFLOW_250m,4102700,250,0.2605564333994428,69.16467938353769,6.546842351227759,-3.14872708264762,0.8288085070953617
MODFLOW_ML_250m,4102700,250,0.2619091173378305,69.2313860982023,6.551786342681301,-3.1547289424090263,0.8314943615862004
MODFLOW_250m,4103500,250,0.8532053981920027,43.64662949943271,4.335717763607383,-1.291762461564212,0.948230982435381
MODFLOW_ML_250m,4103500,250,0.8577296082922261,42.41488209324486,4.196925623364179,-1.2222123968915526,0.94794348266103
MODFLOW_250m,4105000,250,0.3435232117344905,76.16928447092444,7.090183914169062,-2.5939544214036365,0.8432822114089887
MODFLOW_ML_250m,4105000,250,0.3698151557562897,73.28046155372323,6.925824382342605,-2.528193504388817,0.8510005612354918
MODFLOW_250m,4105500,250,0.8315885447233167,35.689120865867125,4.51214031832372,-1.464738281997158,0.9496961526542494
MODFLOW_ML_250m,4105500,250,0.8340471358863332,34.99549842975474,4.44366640754483,-1.4337884557520189,0.949739541557994
MODFLOW_ML_250m,4106000,250,0.7931176509389899,43.87847939841308,4.885011138414468,-1.5955463634388365,0.9373083756451998
MODFLOW_250m,4108600,250,0.1993423976033799,85.33655812369207,6.710280832155414,-2.4910194341618714,0.764813107403004
MODFLOW_ML_250m,4108600,250,0.1908978769993974,86.96496367343569,6.762273515731169,-2.6582517264490586,0.7789478992981739
MODFLOW_250m,4108800,250,-2.264922544170945,215.49936062300748,12.430841330975024,-6.387567947117206,0.5458117848080524
MODFLOW_ML_250m,4108800,250,-2.260261140008889,218.3353811002448,12.538105264649811,-6.4444048160965,0.5503695960771882
MODFLOW_250m,4111000,250,0.7994690973697892,48.96176008574664,4.703690040744718,-1.4536917855921008,0.9299726212557484
MODFLOW_ML_250m,4111000,250,0.8021397923345526,48.64456405355436,4.69080814705701,-1.4175125062957885,0.930216874624238
MODFLOW_250m,4111379,250,0.2264425016508596,58.59335524027535,4.809029093991521,-1.653640327299766,0.7028567305629425
MODFLOW_ML_250m,4111379,250,0.2279097838740338,58.87871858352701,4.825503946107056,-1.660149251695257,0.7051662841299506
MODFLOW_250m,4112500,250,0.4292285008328609,65.05692194265903,5.883794591333975,-2.067991970431756,0.7738742149469644
MODFLOW_ML_250m,4112500,250,0.4273189345033662,65.1262556644925,5.889501132196313,-2.0702759093314387,0.7732480064307705
MODFLOW_250m,4113000,250,0.7942098697904862,49.37227661946481,5.074402067457275,-1.6333016883616387,0.915304889173915
MODFLOW_ML_250m,4113000,250,0.7951239447215722,49.08298520352765,5.063361311767382,-1.6242833120421474,0.914687057823303
MODFLOW_250m,4114498,250,0.2639221023708968,78.11129119596868,7.279618690734315,-2.7515097224644305,0.77177918656337
MODFLOW_ML_250m,4114498,250,0.2706377377515138,77.53158493237896,7.239334627736116,-2.734146115564492,0.7737609422426368
MODFLOW_250m,4115000,250,-0.0642191579875568,50.45211560529216,5.788856337698946,-2.577002893572323,0.6387912114390792
MODFLOW_ML_250m,4115000,250,-0.0526244712025807,50.55111026467598,5.79842498080186,-2.573062626921352,0.6488954769525954
MODFLOW_250m,4115265,250,0.1803595070164487,137.69176331908758,7.887177151741291,-2.683962915265407,0.7288465714802327
MODFLOW_ML_250m,4115265,250,0.1679704136933785,138.5780966400235,7.896187558933844,-2.6869421316621933,0.7247598224285459
MODFLOW_250m,4117500,250,0.5461047768146816,73.98910120360831,6.708476358161315,-2.245431213225266,0.8764693098638451
MODFLOW_ML_250m,4117500,250,0.550606745147235,73.43863703726691,6.691984536857557,-2.234224673231315,0.8773092533003433
MODFLOW_250m,4118500,250,0.7054996383117965,108.00989235321735,7.831635378151122,-2.8252642123364526,0.8849841942671528
MODFLOW_ML_250m,4118500,250,0.706331096068993,107.68052561881228,7.819024652198196,-2.8472084919945635,0.8864592247490607
MODFLOW_250m,4121300,250,-0.7550673237538792,533.2657467593353,17.395270288159082,-4.569398460990085,0.6006631464994869
MODFLOW_ML_250m,4121300,250,-0.7474210205109948,532.1083272306832,17.36054259886323,-4.560223820661866,0.6020776716522791
MODFLOW_250m,4121944,250,0.5746517384730938,116.9990220745509,7.479108737377489,-2.476872355131756,0.8669597545798087
MODFLOW_ML_250m,4121944,250,0.5693464036177163,116.4803515402116,7.470860230460783,-2.475538797538665,0.8660634741814782
MODFLOW_250m,4122100,250,0.8396014552573899,16.0448991625272,3.047602008615184,-1.3293304273626512,0.9225328997664316
MODFLOW_ML_250m,4122100,250,0.8422451792819717,15.773204201134453,3.020021007245649,-1.3120705665300594,0.9346397764027108
MODFLOW_250m,4122200,250,0.831372812639143,128.91526546336297,8.20017099698928,-3.235301383250407,0.9182978306962054
MODFLOW_ML_250m,4122200,250,0.8314752356539642,128.66498860928957,8.202721016992609,-3.238241338497316,0.9191001736400848
MODFLOW_250m,4122500,250,0.8585756946448774,141.71674230447317,8.473371056213992,-3.2395013685635616,0.9333962280282548
MODFLOW_ML_250m,4122500,250,0.8604629100970366,139.79674695376377,8.384814713235038,-3.1982811476584447,0.9342150452792688
MODFLOW_250m,4124000,250,0.5025640748355337,529.3646514052649,17.326560852387107,-4.933082859986339,0.867168535072357
MODFLOW_ML_250m,4124000,250,0.5018110606705672,531.4330511934552,17.3535333964448,-4.942859429850235,0.8667261959448987
MODFLOW_250m,4124200,250,0.5374392890723602,546.5720849770624,17.80640611704378,-5.108831532060295,0.8765596515528437
MODFLOW_ML_250m,4124200,250,0.5374742489157494,547.7782108932901,17.81880083300254,-5.116761212205311,0.8766623419825892
MODFLOW_250m,4124500,250,-1.48702637256394,445.1470706462346,16.139449996030223,-4.363562455345316,0.5333540768403778
MODFLOW_ML_250m,4124500,250,-1.500149971574245,451.5325743073115,16.268026384257485,-4.395447327799396,0.5302466866250161
MODFLOW_250m,4126740,250,-1.39948707578466,624.4623116683258,18.22289155921717,-7.024808653937298,0.4615183782065505
MODFLOW_ML_250m,4126740,250,-1.4175441589775255,623.9386115717839,18.19083940850829,-7.013021763482839,0.4571491380622691
MODFLOW_250m,4126970,250,0.6451750610020444,168.08076379732208,10.039599499335676,-3.1013100688308444,0.8910151021138479
MODFLOW_ML_250m,4126970,250,0.6393757297225817,170.77806532584458,10.087696721796002,-3.108692409047439,0.8889988337491085
MODFLOW_250m,4127800,250,0.7113179875420221,512.4238971350869,16.376829454438845,-6.12758469998158,0.8949401684301527
MODFLOW_ML_250m,4127800,250,0.7028195130915351,520.1940850523566,16.440820734153224,-6.209937560990669,0.8926797900501989
MODFLOW_250m,4127997,250,0.8740658479500215,524.6630534265987,17.79564921957631,-5.9668714183150575,0.9115718586126704
MODFLOW_ML_250m,4127997,250,0.8740948538800748,524.3655241334365,17.787603403170063,-5.96603299124834,0.9128852896907032
MODFLOW_250m,4128990,250,0.6314336243475199,501.8950146190386,20.12719868767989,-5.699034808647352,0.9176161424975512
MODFLOW_ML_250m,4128990,250,0.6454291898630071,490.0482269095204,19.83488015954748,-5.626874470907872,0.9166494936867408
MODFLOW_250m,4135700,250,-1.3808497510488098,448.3262066946873,13.920826239825546,-3.6552523606573386,0.3808460953286396
MODFLOW_ML_250m,4135700,250,-1.3800601114841098,448.6576887729109,13.872255290999254,-3.639343481091271,0.3782748034624885
MODFLOW_250m,4136000,250,0.3165618619946347,300.974497888531,12.284882349039744,-3.206545643160062,0.8044540204646842
MODFLOW_ML_250m,4136000,250,0.3195471593491946,299.65121251029905,12.217490180148856,-3.1849196435208027,0.8040493813721884
MODFLOW_250m,4142000,250,0.8897813067627677,103.66180647766944,7.541933263777771,-2.7343757921577208,0.9431527554943178
MODFLOW_ML_250m,4142000,250,0.8905574586606249,102.99055976482016,7.5077375655840894,-2.718703087882001,0.9438301404953584
MODFLOW_250m,4144500,250,0.781957799922622,82.67854908934916,6.670910278833005,-2.127747123738024,0.9207704448667192
MODFLOW_ML_250m,4144500,250,0.7854896268263094,81.2969864639889,6.6236615183942815,-2.10980966008506,0.9239960107982002
MODFLOW_250m,4145000,250,0.8662140781577843,65.9764105859486,6.13584961231376,-1.929506940437225,0.9488073812624525
MODFLOW_ML_250m,4145000,250,0.8664191093906378,65.91187430445655,6.126596071515101,-1.9263394498407256,0.9491708096452252
MODFLOW_250m,4146000,250,0.8748928409869023,84.37851058171789,7.206183691022774,-2.305722699739625,0.9254900317963384
MODFLOW_ML_250m,4146000,250,0.8776785873836939,82.07791486408115,7.107574193445832,-2.2772625279216063,0.9275562862544642
MODFLOW_250m,4146063,250,0.8144866047110016,152.7297665174825,8.932993851443506,-2.9289233161390023,0.9050937271346526
MODFLOW_ML_250m,4146063,250,0.8147683232241875,152.79138872523748,8.908587931813294,-2.919465595218686,0.9049740587580644
MODFLOW_250m,4147500,250,0.9068746063012122,94.98507280303444,7.456783751490946,-2.5507457047724604,0.9590994453998212
MODFLOW_ML_250m,4147500,250,0.9074686335419124,93.93911682208848,7.395512071459907,-2.524287521142154,0.9600702744696444
MODFLOW_250m,4148140,250,0.8935394030787838,90.18121793365928,7.327280557436164,-2.3070854815789485,0.9616743047246004
MODFLOW_ML_250m,4148140,250,0.893187148915296,90.38236087063744,7.338104794921867,-2.303162356314219,0.9618191500611688
MODFLOW_250m,4148500,250,0.8901469850862667,100.71286915267956,7.888730475121767,-2.610262849751179,0.961000563343434
MODFLOW_ML_250m,4148500,250,0.8910739066240427,99.36594185985804,7.838220931702736,-2.594066109423772,0.9612318109615994
MODFLOW_250m,4150500,250,0.4338932876238396,53.7327514250007,6.087115403529563,-2.553829109031806,0.898977394687542
MODFLOW_ML_250m,4150500,250,0.4346172675297168,53.66403393504918,6.064789887782493,-2.5429365989381285,0.8977300478675718
MODFLOW_250m,4151500,250,0.7130419194776845,87.48762928889144,6.78770769938349,-3.012038991642429,0.923274685545419
MODFLOW_ML_250m,4151500,250,0.7168596705882991,87.47987513806208,6.766333556323054,-3.0056236948563053,0.9234364010718706
MODFLOW_250m,4154000,250,0.940919595659358,73.78471200775337,6.155598297588213,-2.222638749872418,0.968635383887562
MODFLOW_ML_250m,4154000,250,0.94159806482912,73.069936221757,6.133154931459521,-2.210377383896129,0.9688545968110416
MODFLOW_250m,4155500,250,0.916577559324686,90.23581338477332,6.761736854500344,-2.553311760101213,0.9603102821804566
MODFLOW_ML_250m,4155500,250,0.9173283026069692,89.65546352144241,6.728795829691372,-2.5402730099904485,0.960753549363593
MODFLOW_250m,4159492,250,0.3371421406002206,50.74228707645014,5.7569690661741815,-2.420272170574498,0.8360540584963931
MODFLOW_ML_250m,4159492,250,0.3409842029033798,50.448174205058606,5.7312802149404245,-2.408356302751669,0.8364850143420997
MODFLOW_250m,4159900,250,0.4639608516967156,80.15969596166872,6.397178527839157,-2.5083587517611683,0.809704433387137
MODFLOW_ML_250m,4159900,250,0.4638846125884878,80.12554851762144,6.402876463781647,-2.507502926185988,0.8092944784655283
MODFLOW_250m,4160600,250,0.862124268742829,70.7325895419132,7.248458234062815,-2.88521022984236,0.9518824597272096
MODFLOW_ML_250m,4160600,250,0.8617525303979839,70.9013894104258,7.263704438956832,-2.8838268512465213,0.9516691035166172
MODFLOW_250m,4161000,250,0.2795684179955761,92.95788813160554,7.646790591324536,-2.4617233371313323,0.7910320191683862
MODFLOW_ML_250m,4161000,250,0.2925937532175992,90.96846211508348,7.582889880413481,-2.4397340029916785,0.7997045647138328
MODFLOW_250m,4161540,250,0.6255361592537843,170.45124936302096,7.878261214300326,-2.509392896279803,0.8096033015100308
MODFLOW_ML_250m,4161540,250,0.6270590972873983,170.6415935925079,7.870006357119069,-2.498876564165827,0.811085462315041
MODFLOW_250m,4166000,250,0.635624103476855,121.62596193802426,9.45662415883501,-3.689053033915546,0.917473084188262
MODFLOW_ML_250m,4166000,250,0.6443977664585337,118.49538653996773,9.336372868767226,-3.640390396838278,0.9190510519393796
MODFLOW_250m,4166100,250,0.6262065583579983,116.78437094985097,9.375098485853616,-3.761241749635961,0.9321471700914898
MODFLOW_ML_250m,4166100,250,0.6307721300411955,115.26827427656744,9.2937951596398,-3.72641789369432,0.9322519521569356
MODFLOW_250m,4166300,250,0.7398723223170544,126.88484021593428,9.757243184729845,-3.9573338445813713,0.925946915650654
MODFLOW_ML_250m,4166300,250,0.7407647250866081,127.60616306960895,9.782755663337324,-3.967922583852996,0.926869033324452
MODFLOW_250m,4167000,250,0.536474540447216,170.8884111227429,11.158968476787306,-4.11533398040001,0.9160835328128332
MODFLOW_ML_250m,4167000,250,0.4771037138006335,172.06130778617123,11.211795375084684,-4.12591804944765,0.9098276925996542
MODFLOW_250m,4175600,250,0.5816431661748118,72.11649763966635,6.668023860956752,-2.085260345914586,0.8474501702116936
MODFLOW_ML_250m,4175600,250,0.572350686693228,72.70987451977655,6.688760613313339,-2.085539031298243,0.8376558352573924
MODFLOW_250m,4176500,250,0.8919257936652706,80.60269867309368,6.589178022468398,-2.3488214525641,0.9501071284913434
MODFLOW_ML_250m,4176500,250,0.891764767428337,79.82632017267895,6.528481854880629,-2.315527058408468,0.9507302759747756
MODFLOW_250m,40500010102,250,0.830197164017739,23.967518402843503,3.8558401137994207,-0.5493551400715522,0.9256210933341824
MODFLOW_ML_250m,40500010102,250,0.8233768566238281,24.9301986904312,3.955460699338324,-0.5680648488824427,0.9231816882259084
MODFLOW_250m,40500010206,250,0.966088900090858,21.288712702321416,3.6155386803778224,-0.9223002976711828,0.986002795034109
MODFLOW_ML_250m,40500010206,250,0.963776912717816,23.13338921099368,3.732557522141022,-0.9618164372351709,0.983309034397238
MODFLOW_250m,40500012304,250,0.8207822536916515,41.60263530971522,4.626260128926767,-1.64063974843213,0.9342966113987026
MODFLOW_ML_250m,40500012304,250,0.8218075324320885,41.25461844213402,4.594078242540879,-1.6121380234176304,0.9352509026661616
MODFLOW_250m,40500012403,250,0.8635401142432929,82.60288921861236,6.778763516006679,-2.761337597135983,0.9253218537295832
MODFLOW_ML_250m,40500012403,250,0.8616647526437134,83.70441195567027,6.752316451552229,-2.733853806874256,0.9213206860386308
MODFLOW_250m,40500020207,250,0.3248549529563569,60.52899131270664,5.954739701973072,-2.8222578941444523,0.7950886877190729
MODFLOW_ML_250m,40500020207,250,0.3226198325867295,60.729377262405066,5.951838521934856,-2.823442023150354,0.7954733493809261
MODFLOW_250m,40500020402,250,-2.4714301037143205,190.66049272534823,11.4834777152013,-5.968384722048628,0.5064113240719292
MODFLOW_ML_250m,40500020402,250,-2.431302670093822,189.9424639168217,11.453292362912524,-5.960355178510133,0.5120206843601585
MODFLOW_250m,40500030307,250,0.4590130537732201,64.01278149960893,6.096137370902172,-2.113584164376664,0.8538320388619046
MODFLOW_ML_250m,40500030307,250,0.4855785221292519,60.7947000037113,5.882197616520599,-2.022573151100348,0.8591219577330891
MODFLOW_250m,40500030310,250,-0.1819349919129285,102.2497724206628,8.652871694706732,-3.179807599534465,0.8080704105705394
MODFLOW_ML_250m,40500030310,250,-0.1616137173021874,99.60659813982684,8.48647071433151,-3.148415101759913,0.8160371354143197
MODFLOW_250m,40500030505,250,-0.0257556863963208,110.1094352037112,8.984010417384727,-3.165192229360663,0.7792308547609372
MODFLOW_ML_250m,40500030505,250,-0.0127552007651894,108.7139019893189,8.940324613563687,-3.1516481673987444,0.7840399941803704
MODFLOW_250m,40500030805,250,-0.2414577635514658,85.25723217122032,7.201326796974827,-2.6715553780775942,0.6871393298632733
MODFLOW_ML_250m,40500030805,250,-0.2621090039655678,87.09232926512513,7.263834374268486,-2.8623602675634165,0.7133673991710813
MODFLOW_250m,40500040102,250,0.6415260215052428,68.1295625471995,4.758151356775688,-1.425729515291319,0.8602818530186007
MODFLOW_ML_250m,40500040102,250,0.6465037090097419,67.53072482283628,4.74593634905064,-1.425464307007047,0.8628881295653805
MODFLOW_250m,40500040502,250,-2.9417911236155816,94.2368474263376,9.02309008316532,-3.447806783467437,0.7309547951406069
MODFLOW_ML_250m,40500040502,250,-2.9676210061897264,94.85436535837536,9.037236457283264,-3.453212244811142,0.7251238637451093
MODFLOW_250m,40500040504,250,0.4110625720903464,63.859842112612405,5.5893163139308575,-1.938074100624895,0.7749859952579371
MODFLOW_ML_250m,40500040504,250,0.4163137849088705,63.44929952813226,5.567600097951939,-1.92956654144736,0.7757391001778904
MODFLOW_250m,40500050207,250,0.0536130115980784,40.057477564209165,5.162128678961906,-2.275543146691839,0.6911681701088868
MODFLOW_ML_250m,40500050207,250,0.0645352563400712,39.5530626820288,5.123343383186679,-2.2621211542113167,0.7051076743465705
MODFLOW_250m,40500050302,250,0.1299372852427551,159.8832328422736,9.2486658222531,-3.16836139698921,0.7269829526214633
MODFLOW_ML_250m,40500050302,250,-0.0104358626881502,239.39236335342156,10.212934655666594,-3.525095883837338,0.5912563588011144
MODFLOW_250m,40500060401,250,0.7834828404499822,76.71629462100663,6.341661759720748,-2.0359494461136385,0.9026271927049344
MODFLOW_250m,40500070211,250,0.4567824712093173,72.43256936501078,6.636683320610433,-2.22311910092024,0.8573282635842638
MODFLOW_250m,40601010503,250,0.8329781629380603,122.284621305762,7.43149895762232,-2.848491508552597,0.9315369556822788
MODFLOW_ML_250m,40601010503,250,0.8373410227669313,118.1509398818903,7.28454800124598,-2.775628083128973,0.9354769738624772
MODFLOW_250m,40601010803,250,0.8631085996316226,103.83530832918548,7.154405654224351,-2.728656561138037,0.9084293188916408
MODFLOW_ML_250m,40601010803,250,0.862123116988194,104.57154343281812,7.1812058294116525,-2.7333811901712504,0.9068481248870588
MODFLOW_250m,40601020302,250,-0.8038372080010094,510.3090509504652,16.246019698617783,-4.220015238690846,0.5833004315229232
MODFLOW_250m,40601020807,250,0.6608045428055842,88.94508123880783,5.993819867909284,-1.8402053968182863,0.8741538832466955
MODFLOW_250m,40601021003,250,0.8958621745819676,10.327232950511574,2.4174729487822515,-0.9296875724991052,0.9608609238602004
MODFLOW_250m,40601030209,250,0.3915420571381102,547.7526670602476,17.653612390441534,-5.280140605797762,0.8353075597564996
MODFLOW_ML_250m,40601030209,250,0.3947632731754803,544.3940545816762,17.588597489792146,-5.253611603763427,0.8354868194190996
MODFLOW_250m,40601030402,250,-1.4393381981014133,451.7608071850172,16.000702872854756,-4.303066711241187,0.5180855742800778
MODFLOW_ML_250m,40601030404,250,0.7067351226861769,427.9144549568473,16.394948833511833,-4.5155287930499055,0.9107274295368328
MODFLOW_250m,40601040202,250,-1.6689914335070737,681.3773090243927,18.516788156374,-7.193617531304614,0.3943597189513097
MODFLOW_250m,40601050201,250,0.7670300158673864,416.9236883404986,13.858032910911918,-4.63900620325769,0.9053684279424108
MODFLOW_ML_250m,40601050201,250,0.7583874362492429,424.590032786029,13.86738583904932,-4.684251641576282,0.9023200876763342
MODFLOW_250m,40601050502,250,0.6054205694944277,192.3899841304144,10.91037630556458,-3.386024006554368,0.882671005803145
MODFLOW_ML_250m,40601050502,250,0.6057703481300498,192.768369579015,10.869205957877789,-3.367939034476365,0.8817892757641177
MODFLOW_250m,40700040102,250,0.9007043260085102,411.23489073282735,14.91688363305436,-4.94838010021429,0.923274378191226
MODFLOW_ML_250m,40700040102,250,0.9003156751958824,410.4281025126318,14.978823503410403,-4.901872439429535,0.9228077601571104
MODFLOW_ML_250m,40700040301,250,0.7188865960492739,430.3414036090596,17.989730248958328,-5.158950884334618,0.9141231131258352
MODFLOW_250m,40700070106,250,-1.5515081596586429,528.4971360879761,15.26869617760521,-4.045840772249012,0.3405565481974466
MODFLOW_ML_250m,40700070106,250,-1.563404195086421,531.1365799852035,15.247013331934369,-4.03715853598784,0.336752658560435
MODFLOW_250m,40801010405,250,0.8998810656323395,88.42538523887953,6.834713040991801,-2.417988758214106,0.946922135697208
MODFLOW_ML_250m,40801010405,250,0.8989354350779248,89.11984664909626,6.828092664973295,-2.417056213549676,0.9451990141332726
MODFLOW_ML_250m,40802010304,250,0.8012429040115543,134.75451551206723,6.538448387445098,-1.909193438351859,0.9009787704322928
MODFLOW_ML_250m,40802020104,250,0.9526124205420292,53.72207478300784,5.357842889560231,-1.6499782052559695,0.972356088003847
MODFLOW_250m,40802030205,250,0.8414289250265035,63.99744030187247,5.867024057341814,-1.745017819353579,0.9300721817533248
MODFLOW_ML_250m,40802030205,250,0.8417869094126142,64.0073016038511,5.861023934987426,-1.739672670650731,0.9290486020259426
MODFLOW_250m,40802040101,250,0.8471304768264577,130.29496109690524,7.537094024456399,-2.420995458388889,0.9197596803741738
MODFLOW_ML_250m,40802040101,250,0.8486500186409754,128.84829035696345,7.429863224506294,-2.374496192552221,0.9212834036108694
MODFLOW_ML_250m,40802040104,250,0.8773386866813484,80.83994333975322,7.012799339058464,-2.22881271246109,0.9153779082127168
MODFLOW_250m,40802040208,250,0.9028904668666602,96.54876634810869,6.6762979465376775,-2.2968466795459586,0.9529303072480264
MODFLOW_ML_250m,40802040208,250,0.9046665798640654,94.40141242977076,6.561448816539516,-2.2367987805843152,0.9546426534936128
MODFLOW_ML_250m,40802040405,250,0.8994243274498106,85.67273832398051,6.989834435386963,-2.1992248061916526,0.9634890515140327
MODFLOW_250m,40900010102,250,0.3537670314296948,47.517249375106125,5.470889085286444,-2.354043304627898,0.8372457260524782
MODFLOW_ML_250m,40900010102,250,0.3694978666583105,47.11003265064669,5.440823224446601,-2.3333644035786283,0.8417434145067391
MODFLOW_250m,40900010209,250,0.5012304376809096,69.51636972098065,5.62401162362344,-2.234503714456289,0.7957756946081882
MODFLOW_ML_250m,40900010209,250,0.5079447786862317,69.08783353012484,5.60890429192732,-2.2309898986977466,0.7980476535713288
MODFLOW_250m,40900010403,250,0.8932942974080501,51.082705293354266,6.046852324872349,-2.3972186556815847,0.937886366980302
MODFLOW_ML_250m,40900010403,250,0.8931383720884547,51.00347674628443,6.042203952160715,-2.396413150154529,0.9388300721155542
MODFLOW_250m,40900030201,250,0.840713279876901,94.46657158632318,7.270759537588326,-2.332993472046178,0.947849584536556
MODFLOW_ML_250m,40900030201,250,0.8416361578981119,94.02154785027476,7.263181369192519,-2.3219428349384703,0.9484978094830888
MODFLOW_250m,40900030303,250,0.9061895868051189,28.59784243073538,4.731800625160082,-2.090004626445966,0.9688879845616436
MODFLOW_ML_250m,40900030303,250,0.9068545425289996,28.39513253566805,4.720881335649324,-2.085181649443588,0.9709899841664764
MODFLOW_250m,40900030304,250,0.9352325757099194,76.79814576996262,6.251913823431904,-2.309141300696901,0.9489047987450896
MODFLOW_ML_250m,40900030304,250,0.9360908791674796,75.71041439835739,6.214215484647553,-2.282101798469432,0.9472400123624768
MODFLOW_250m,40900030305,250,0.8649373438359715,106.02519313121682,7.264432928043964,-2.495157448684564,0.9168312907035148
MODFLOW_ML_250m,40900030305,250,0.8632798169435012,107.35558572115356,7.314774238330023,-2.5122430199419434,0.9140437075756188
MODFLOW_250m,40900040202,250,0.586752422191946,147.45264569707982,10.305918980436672,-3.779151659816894,0.9169556125495693
MODFLOW_ML_250m,40900040202,250,0.5375081222530091,148.29917673836766,10.359560659919238,-3.764672298788414,0.9129088214149352
